/*--------------------------------*- C++ -*----------------------------------*\
  =========                 |
  \\      /  F ield         | OpenFOAM: The Open Source CFD Toolbox
   \\    /   O peration     | Website:  https://openfoam.org
    \\  /    A nd           | Version:  8
     \\/     M anipulation  |
\*---------------------------------------------------------------------------*/
FoamFile
{
    version     2.0;
    format      ascii;
    class       dictionary;
    object      blockMeshDict;
}
// * * * * * * * * * * * * * * * * * * * * * * * * * * * * * * * * * * * * * //

convertToMeters 0.000007238050957;

vertices
(
    (-22 0.5 0.5)
    (-22 -0.5 0.5)
    (-22 -0.5 -0.5)
    (-22 0.5 -0.5)
    (22 0.5 0.5)
    (22 -0.5 0.5)
    (22 -0.5 -0.5)
    (22 0.5 -0.5)
);

blocks
(
    hex (0 1 2 3 4 5 6 7) (1 1 264) simpleGrading (1 1 1)
);

edges
(
);

boundary
(
    source
    {
        type patch;
        faces
        (
            (3 0 1 2)
        );
    }
    collector
    {
        type patch;
        faces
        (
            (4 5 6 7)
        );
    }
    emptyBoundary
    {
        type empty;
        faces
        (
            (3 0 4 7)
            (0 1 5 4)
            (6 5 1 2)
            (7 6 2 3)
        );
    }
);

mergePatchPairs
(
);

// ************************************************************************* //
