/*--------------------------------*- C++ -*----------------------------------*\
| =========                 |                                                 |
| \\      /  F ield         | OpenFOAM: The Open Source CFD Toolbox           |
|  \\    /   O peration     | Version:  5                                     |
|   \\  /    A nd           | Web:      www.OpenFOAM.org                      |
|    \\/     M anipulation  |                                                 |
\*---------------------------------------------------------------------------*/
FoamFile
{
    version     2.0;
    format      ascii;
    class       dictionary;
    location    "constant";
    object      picProperties;
}
// * * * * * * * * * * * * * * * * * * * * * * * * * * * * * * * * * * * * * //

//Note: One can type in an invalid model name to get a list of all defined models at runtime!

SolverSettings
{
    typeIdList          (e);//Defined species
    fieldCalculation    ();

    ChargeDistribution  CellAverage;//Model for weighting the charge to the mesh
    FieldWeigthing      CellAverage;//Model for weighting the electric field to the parcel
    spaceCharge     0;//[As] space charge to be uniformly distributed


    checkDebyeLength        false;//Print a message if the cell is larger than the Debye length
    checkPlasmaFrequency    false;//Print a message if the time step is larger than the plasma frequency
    warnCellTrajectory      0.3;//Warn once every time step if a particle moves further than x of the cell length (there may even be faster particles)
}

Diagnostics
{
    modelList (ParcelInfo);//Select these Diagnostic models

    ParcelInfoCoeffs
    {
        position yes;
        //Can be specified for every model (optional):
        //diagnosticControl timeStep;//[timeStep|writeTime|runTime|...]
        //diagnosticInterval 100;//Only run every 100th timestep
    }
}

moleculeProperties//Properties of all species defined via SolverSettings/typeIdList
{
    e
    {
        nEquivalentParticles            1;//Number of real particles included in the parcel
        mass                            9.109e-31;
        diameter                        5.6358e-15;
        omega                           1;//viscosity index (used only by the VariableHardSphere model)
        charge                          -1.602176e-19;
        solveMovement                   true;//Whether the parcel should move or stay stationary
    }
    SpeciesRelations//Relations between species. Required for the collision algorithms among others
    {
        electronTypeId e;
    }
}


// BoundaryModels
// ~~~~~~~~~~~~~~~
BoundaryModels
{
    //Reflection model for boundaries of type wall (see: constant/polyMesh/boundary)
    WallReflectionModel SpecularReflection;

    //List of PatchEvent models
    PatchEventModels
    {
        modelList ( );
    }

    //Boundary models have to be defined for patches
    PatchBoundaryModels
    {
        modelList
        (
            "(lowerBoundary|upperBoundary|rightBoundary|leftBoundary)"//Definition for multiple boundaries
            {
                type           none;//none: Open boundary delete everything
            }
        );

    }
    
}

// MaxwellSolver
// ~~~~~~~~~~~~~~~~~~~~~
MaxwellSolver                  none;

// ParticlePusher
// ~~~~~~~~~~~~~~~~~~~~~
ParticlePusher                 HigueraCary;


// CollisionModels
// ~~~~~~~~~~~~~~~~~~~~~
CollisionModels
{
    BackgroundGasModel              none;
    ElectronNeutralCollisionModel   none;
    BinaryCollisionModel            none;
    CoulombCollisionModel           none;
    IonNeutralCollisionModel        none;
}

// ParticleMerging
// ~~~~~~~~~~~~~~~~~~~~~
ParticleMerging none;


// ************************************************************************* //
