/*--------------------------------*- C++ -*----------------------------------*\
  =========                 |
  \\      /  F ield         | OpenFOAM: The Open Source CFD Toolbox
   \\    /   O peration     | Website:  https://openfoam.org
    \\  /    A nd           | Version:  8
     \\/     M anipulation  |
\*---------------------------------------------------------------------------*/
FoamFile
{
    version     2.0;
    format      ascii;
    class       dictionary;
    location    "constant";
    object      picProperties;
}
// * * * * * * * * * * * * * * * * * * * * * * * * * * * * * * * * * * * * * //

//Note: One can type in an invalid model name to get a list of all defined models at runtime!

SolverSettings
{
    typeIdList                      (e Ar Ar+);//Defined species
    fieldCalculation                ();

    ChargeDistribution              CellAverage;//Model for weighting the charge to the mesh
    FieldWeigthing                  CellAverage;//Model for weighting the electric field to the parcel

    spaceCharge                     0;//[As] space charge to be uniformly distributed

    warnCellTrajectory              0.5;//Warn once every time step if a particle moves further than x of the cell length (there may even be faster particles)

}

Diagnostics
{
    modelList (Temperature Composition KineticEnergy);//Select these Diagnostic models
}

moleculeProperties//Properties of all species defined via SolverSettings/typeIdList
{
    e
    {
        mass                            9.109e-31;
        diameter                        5.6358e-15;
        omega                           1;//viscosity index (used only by the VariableHardSphere model)
        charge                          -1.602176e-19;
        solveMovement                   true;//Whether the parcel should move or stay stationary
        nEquivalentParticles            100;//Number of real particles included in the parcel
    }
    Ar
    {
        mass                            6.682e-26;
        diameter                        3.67e-10;
        omega                           1;
        charge                          0;
        solveMovement                   false;
        nEquivalentParticles            100;
    }
    Ar+
    {
        mass                            6.682e-26;
        diameter                        3.67e-10;
        omega                           1;
        charge                          1.602176e-19;
        solveMovement                   true;
        nEquivalentParticles            100;
    }

    SpeciesRelations//Relations between species. Required for the collision algorithms among others
    {
        electronTypeId e;
        species1
        {
            neutralTypeId Ar;
            ionTypeId Ar+;
        }
    }
}


// BoundaryModels
// ~~~~~~~~~~~~~~~~
BoundaryModels
{
    //Reflection model for boundaries of type wall (see: constant/polyMesh/boundary)
    WallReflectionModel SpecularReflection;

    //List of PatchEvent models
    PatchEventModels
    {
        modelList ();
    }

    //Boundary models have to be defined for patches
    PatchBoundaryModels
    {
        modelList ();

    }
    
}


// MaxwellSolver
// ~~~~~~~~~~~~~~~~~~~~~
MaxwellSolver                  none;

// ParticlePusher
// ~~~~~~~~~~~~~~~~~~~~~
ParticlePusher                 Boris;

// ParticleMerging
// ~~~~~~~~~~~~~~~~~~~~~
ParticleMerging                 none;

// CollisionModels
// ~~~~~~~~~~~~~~~~~~~~~
CollisionModels
{
    BackgroundGasModel              none;
    
    BinaryCollisionModel            none;
    CoulombCollisionModel           none;
    IonNeutralCollisionModel        none;

    //Electron-Neutal collision model
    ElectronNeutralCollisionModel   RelativisticElectronNeutral;
    ElectronNeutralCollisionCoeffs
    {
        WeightCorrection            none;//Correction model for particles of unequal weight
        CrossSectionModels
        {
            Ar
            {
                ElasticCrossSection     none;//Cross section model for elastic collisions
                ExcitationCrossSection  none;
                IonizationCrossSection  FixedValue;
                IonizationFixedValueCoeffs//options
                {
                    value 3.43943e-20;
                    threshold 15.76;
                }
            }

        }       

    }
}


// ************************************************************************* //
