/*--------------------------------*- C++ -*----------------------------------*\
  =========                 |
  \\      /  F ield         | OpenFOAM: The Open Source CFD Toolbox
   \\    /   O peration     | Website:  https://openfoam.org
    \\  /    A nd           | Version:  8
     \\/     M anipulation  |
\*---------------------------------------------------------------------------*/
FoamFile
{
    version     2.0;
    format      ascii;
    class       dictionary;
    location    "constant";
    object      picProperties;
}
// * * * * * * * * * * * * * * * * * * * * * * * * * * * * * * * * * * * * * //

SolverSettings
{
    typeIdList                      (e Ar Ar+);
    fieldCalculation                ();

    ChargeDistribution              CellAverage;
    FieldWeigthing                  CellAverage;

    spaceCharge                     0;

    checkDebyeLength                false;
    checkPlasmaFrequency            false;

    warnCellTrajectory              0.5;
}

Diagnostics
{
    modelList (Temperature Composition KineticEnergy);
}

moleculeProperties
{
    e
    {
        mass                            9.109e-31;
        diameter                        5.6358e-15;
        omega                           1;
        charge                          -1.602176e-19;
        solveMovement                   true;
        nEquivalentParticles            100;
    }
    Ar
    {
        mass                            6.682e-26;
        diameter                        3.67e-10;
        omega                           1;
        charge                          0;
        solveMovement                   false;
        nEquivalentParticles            100;
    }
    Ar+
    {
        mass                            6.682e-26;
        diameter                        3.67e-10;
        omega                           1;
        charge                          1.602176e-19;
        solveMovement                   true;
        nEquivalentParticles            100;
    }

    SpeciesRelations
    {
        electronTypeId e;
        species1
        {
            neutralTypeId Ar;
            ionTypeId Ar+;
        }
    }
}


// BoundaryModels
// ~~~~~~~~~~~~~~~~
BoundaryModels
{
    WallReflectionModel SpecularReflection;

    PatchEventModels
    {
        modelList ();
    }

    PatchBoundaryModels
    {
        modelList ();

    }
    
}


// MaxwellSolver
// ~~~~~~~~~~~~~~~~~~~~~
MaxwellSolver                  none;

// ParticlePusher
// ~~~~~~~~~~~~~~~~~~~~~
ParticlePusher                 Boris;

// ParticleMerging
// ~~~~~~~~~~~~~~~~~~~~~
ParticleMerging                 none;

// CollisionModels
// ~~~~~~~~~~~~~~~~~~~~~
CollisionModels
{
    BackgroundGasModel              none;
    
    BinaryCollisionModel            none;
    CoulombCollisionModel           none;

    ElectronNeutralCollisionModel   RelativisticElectronNeutral;
    ElectronNeutralCollisionCoeffs
    {
        WeightCorrection            none;
        CrossSectionModels
        {
            Ar
            {
                ElasticCrossSection     none;
                ExcitationCrossSection  none;
                IonizationCrossSection  FixedValue;
                IonizationFixedValueCoeffs
                {
                    value 3.43943e-20;
                    threshold 15.76;
                }
            }

        }       

    }
}


// ************************************************************************* //
