/*--------------------------------*- C++ -*----------------------------------*\
  =========                 |
  \\      /  F ield         | OpenFOAM: The Open Source CFD Toolbox
   \\    /   O peration     | Website:  https://openfoam.org
    \\  /    A nd           | Version:  8
     \\/     M anipulation  |
\*---------------------------------------------------------------------------*/
FoamFile
{
    version     2.0;
    format      ascii;
    class       dictionary;
    object      blockMeshDict;
}
// * * * * * * * * * * * * * * * * * * * * * * * * * * * * * * * * * * * * * //

convertToMeters 0.0000015;

vertices
(
    (-5 5 0.5)
    (-5 -5 0.5)
    (-5 -5 -0.5)
    (-5 5 -0.5)
    (5 5 0.5)
    (5 -5 0.5)
    (5 -5 -0.5)
    (5 5 -0.5)
);

blocks
(
    hex (0 1 2 3 4 5 6 7) (8 1 8) simpleGrading (1 1 1)
);

edges
(
);

boundary
(
    leftBoundary
    {
        type cyclic;
        neighbourPatch rightBoundary;
        matchTolerance  0.0001;
        transform       unspecified;
        faces
        (
            (3 0 2 1)
        );
    }
    rightBoundary
    {
        type cyclic;
        neighbourPatch leftBoundary;
        matchTolerance  0.0001;
        transform       unspecified;
        faces
        (
            (4 5 6 7)
        );
    }
    upperBoundary
    {
        type cyclic;
        neighbourPatch lowerBoundary;
        matchTolerance  0.0001;
        transform       unspecified;
        faces
        (
            (3 0 4 7)
        );
    }
    lowerBoundary
    {
        type cyclic;
        neighbourPatch upperBoundary;
        matchTolerance  0.0001;
        transform       unspecified;
        faces
        (
            (6 5 1 2)
        );
    }
    emptyBoundary
    {
        type empty;
        faces
        (
            (0 1 5 4)
            (7 6 2 3)
        );
    }
);

mergePatchPairs
(
);

// ************************************************************************* //
