/*--------------------------------*- C++ -*----------------------------------*\
  =========                 |
  \\      /  F ield         | OpenFOAM: The Open Source CFD Toolbox
   \\    /   O peration     | Website:  https://openfoam.org
    \\  /    A nd           | Version:  8
     \\/     M anipulation  |
\*---------------------------------------------------------------------------*/
FoamFile
{
    version     2.0;
    format      ascii;
    class       dictionary;
    location    "system";
    object      picInitialiseDict;
}
// * * * * * * * * * * * * * * * * * * * * * * * * * * * * * * * * * * * * * //

electronVolt      false;
temperature
{
    Ne       1000;
    Ar       500;
}

numberDensities
{
    Ne       1e22;
    Ar       1e22;
}

InitializationModel Equipartition;

EquipartitionCoeffs
{
    velocity (0 0 0);
}

solveMaxwellEquations false;
initalizeLeapFrog false;
initalizeCollisionModels true;
clearParticles true;


// ************************************************************************* //
