/*--------------------------------*- C++ -*----------------------------------*\
  =========                 |
  \\      /  F ield         | OpenFOAM: The Open Source CFD Toolbox
   \\    /   O peration     | Website:  https://openfoam.org
    \\  /    A nd           | Version:  8
     \\/     M anipulation  |
\*---------------------------------------------------------------------------*/
FoamFile
{
    version     2.0;
    format      ascii;
    class       volScalarField;
    location    "0";
    object      phiE;
}
// * * * * * * * * * * * * * * * * * * * * * * * * * * * * * * * * * * * * * //

dimensions      [1 2 -3 0 0 -1 0];

internalField   uniform 0;

boundaryField
{
    leftBoundary
    {
        type            fixedValue;
        value           uniform 0;
    }
    rightBoundary
    {
        type            fixedValue;
        value           uniform 0;
    }
    upperBoundary
    {
        type            fixedValue;
        value           uniform 0;
    }
    lowerBoundary
    {
        type            fixedValue;
        value           uniform 0;
    }
    emptyBoundary
    {
        type            empty;
    }
}


// ************************************************************************* //
