/*--------------------------------*- C++ -*----------------------------------*\
  =========                 |
  \\      /  F ield         | OpenFOAM: The Open Source CFD Toolbox
   \\    /   O peration     | Website:  https://openfoam.org
    \\  /    A nd           | Version:  8
     \\/     M anipulation  |
\*---------------------------------------------------------------------------*/
FoamFile
{
    version     2.0;
    format      ascii;
    class       dictionary;
    location    "system";
    object      picInitialiseDict;
}
// * * * * * * * * * * * * * * * * * * * * * * * * * * * * * * * * * * * * * //

numberDensities
{
    e       1e22;
    Ar      1e22;
    Ar+        0;
}

electronVolt true;
temperature
{
    e        100;
    Ar       0.0;
    Ar+      0.0;
}

InitializationModel Equipartition;

EquipartitionCoeffs
{
    velocity                (0 0 0);
}

initalizeCollisionModels    true;
solveMaxwellEquations       false;
initalizeLeapFrog           false;
clearParticles              true;


// ************************************************************************* //
