/*--------------------------------*- C++ -*----------------------------------*\
  =========                 |
  \\      /  F ield         | OpenFOAM: The Open Source CFD Toolbox
   \\    /   O peration     | Website:  https://openfoam.org
    \\  /    A nd           | Version:  8
     \\/     M anipulation  |
\*---------------------------------------------------------------------------*/
FoamFile
{
    version     2.0;
    format      ascii;
    class       dictionary;
    location    "system";
    object      controlDict;
}
// * * * * * * * * * * * * * * * * * * * * * * * * * * * * * * * * * * * * * //

application     picFoam;

startFrom       latestTime;

startTime       0;

stopAt          endTime;

endTime         5e-6;

deltaT          1e-11;

writeControl    runTime;

writeInterval   1e-7;

purgeWrite      0;

writeFormat     ascii;

writePrecision  10;

writeCompression off;

timeFormat      general;

timePrecision   6;

runTimeModifiable true;

functions
{
    Averages
    {
        type            fieldAverage;
        libs            ("libfieldFunctionObjects.so");
        writeControl    writeTime;
        
        restartOnRestart    true;
        restartOnOutput     true;
        periodicRestart     false;
        restartPeriod       0.0;

        fields
        (
            rhoCharge
            {
                mean        on;
                prime2Mean  off;
                base        time;
            }
            phiE
            {
                mean        on;
                prime2Mean  off;
                base        time;
            }
            E
            {
                mean        on;
                prime2Mean  off;
                base        time;
            }
        );
}

// ************************************************************************* //
