/*--------------------------------*- C++ -*----------------------------------*\
  =========                 |
  \\      /  F ield         | OpenFOAM: The Open Source CFD Toolbox
   \\    /   O peration     | Website:  https://openfoam.org
    \\  /    A nd           | Version:  8
     \\/     M anipulation  |
\*---------------------------------------------------------------------------*/
FoamFile
{
    version     2.0;
    format      ascii;
    class       dictionary;
    location    "system";
    object      picInitialiseDict;
}
// * * * * * * * * * * * * * * * * * * * * * * * * * * * * * * * * * * * * * //

numberDensities
{
    e           1e15;
    Ar+         1e15;
};

InitializationModel Maxwellian;

MaxwellianCoeffs
{
    e
    {
        driftVelocity (0 0 0);
        thermalVelocity (419391.705 419391.705 419391.705);
    }
    Ar+
    {
        driftVelocity (0 0 0);
        thermalVelocity (1548.491393 1548.491393 1548.491393);
    }
}

solveMaxwellEquations true;
initalizeLeapFrog false;
clearParticles true;
initalizeCollisionModels false;

// ************************************************************************* //
