/*--------------------------------*- C++ -*----------------------------------*\
  =========                 |
  \\      /  F ield         | OpenFOAM: The Open Source CFD Toolbox
   \\    /   O peration     | Website:  https://openfoam.org
    \\  /    A nd           | Version:  8
     \\/     M anipulation  |
\*---------------------------------------------------------------------------*/
FoamFile
{
    version     2.0;
    format      ascii;
    class       volScalarField;
    location    "0";
    object      boundaryT;
}
// * * * * * * * * * * * * * * * * * * * * * * * * * * * * * * * * * * * * * //

dimensions      [0 0 0 1 0 0 0];

internalField   uniform 0;

boundaryField
{
    leftBoundary
    {
        type            cyclic;
    }
    rightBoundary
    {
        type            cyclic;
    }
    upperBoundary
    {
        type            cyclic;
    }
    lowerBoundary
    {
        type            cyclic;
    }
    emptyBoundary
    {
        type            empty;
    }
}


// ************************************************************************* //
