/*--------------------------------*- C++ -*----------------------------------*\
  =========                 |
  \\      /  F ield         | OpenFOAM: The Open Source CFD Toolbox
   \\    /   O peration     | Website:  https://openfoam.org
    \\  /    A nd           | Version:  8
     \\/     M anipulation  |
\*---------------------------------------------------------------------------*/
FoamFile
{
    version     2.0;
    format      ascii;
    class       dictionary;
    location    "constant";
    object      picProperties;
}
// * * * * * * * * * * * * * * * * * * * * * * * * * * * * * * * * * * * * * //

//Note: One can type in an invalid model name to get a list of all defined models at runtime!

SolverSettings
{
    typeIdList                      (e Ar+);//Defined species
    fieldCalculation                (e Ar+);//Calculate separate fields for these species
    ChargeDistribution              CellAverage;//Model for weighting the charge to the mesh
    FieldWeigthing                  CellAverage;//Model for weighting the electric field to the parcel

    spaceCharge                     0;//[As] space charge to be uniformly distributed

    warnCellTrajectory              0.5;//Warn once every time step if a particle moves further than x of the cell length (there may even be faster particles)

    //syncVelocityAtBoundary        true;//Sync the particles velocity at the boundary (in the leap frog scheme velocity and position are offset by half a timestep) (optional)
}


Diagnostics
{
    modelList (Composition Temperature);//Select these Diagnostic models

    CompositionCoeffs//Additional options
    {
        printNumberDensity true;
        //Can be specified for every model (optional):
        //diagnosticControl timeStep;//[timeStep|writeTime|runTime|...]
        //diagnosticInterval 100;//Only run every 100th timestep
    }
}

moleculeProperties//Properties of all species defined via SolverSettings/typeIdList
{
    e
    {
        mass                            9.109e-31;
        diameter                        5.6358e-15;
        omega                           1;//viscosity index (used only by the VariableHardSphere model)
        charge                          -1.602176e-19;
        solveMovement                   true;//Whether the parcel should move or stay stationary
        nEquivalentParticles            1;//Number of real particles included in the parcel
    }
    Ar+
    {
        mass                            3.644e-29;
        diameter                        3.67e-10;
        omega                           1;
        charge                          1.602176e-19;
        solveMovement                   true;
        nEquivalentParticles            1;
    }

    SpeciesRelations//Relations between species. Required for the collision algorithms among others
    {
        electronTypeId e;
        species1
        {
            neutralTypeId none;
            ionTypeId Ar+;
        }
    }
}


// BoundaryModels
// ~~~~~~~~~~~~~~~
BoundaryModels
{
    //Reflection model for boundaries of type wall (see: constant/polyMesh/boundary)
    WallReflectionModel SpecularReflection;

    //List of PatchEvent models
    PatchEventModels
    {
        modelList ();
    }

    //Boundary models have to be defined for patches
    PatchBoundaryModels
    {
        modelList
        (
            source//Patch name
            {
                type           SimpleInjection;

                SimpleInjectionCoeffs//Options
                {
                    frequencies         (5.3e12 5.3e12);
                    injectionEndTime    1;
                    eV                  (1 1);
                    injectionTypeIds    (e Ar+);
                    velocityModel       maxwellianFlux;

                    interactions
                    {
                        Ar+
                        {
                            type reflection;
                            useInitalVelocity true;
                        }
                        e
                        {
                            type reflection;
                            useInitalVelocity true;
                        }
                    }
                            
                }
            }
            collector//Patch name
            {
                type           FloatingPotential;
            }
        );

    }
    
}


// MaxwellSolver
// ~~~~~~~~~~~~~~~~~~~~~
MaxwellSolver                  ElectroStatic;

// ParticlePusher
// ~~~~~~~~~~~~~~~~~~~~~
ParticlePusher                 BorisNR;

// CollisionModels
// ~~~~~~~~~~~~~~~~~~~~~
CollisionModels
{
    BackgroundGasModel              none;
    ElectronNeutralCollisionModel   none;
    BinaryCollisionModel            none;
    CoulombCollisionModel           none;
    IonNeutralCollisionModel        none;
}

// ParticleMerging
// ~~~~~~~~~~~~~~~~~~~~~
ParticleMerging none;


// ************************************************************************* //
