/*--------------------------------*- C++ -*----------------------------------*\
  =========                 |
  \\      /  F ield         | OpenFOAM: The Open Source CFD Toolbox
   \\    /   O peration     | Website:  https://openfoam.org
    \\  /    A nd           | Version:  8
     \\/     M anipulation  |
\*---------------------------------------------------------------------------*/
FoamFile
{
    version     2.0;
    format      ascii;
    class       dictionary;
    location    "constant";
    object      picProperties;
}
// * * * * * * * * * * * * * * * * * * * * * * * * * * * * * * * * * * * * * //

SolverSettings
{
    typeIdList                      (e Ar+);
    fieldCalculation (e Ar+);
    ChargeDistribution              CellAverage;
    FieldWeigthing                  CellAverage;

    spaceCharge                     0;

    checkDebyeLength                false;
    checkPlasmaFrequency            false;

    warnCellTrajectory              0.5;

}


Diagnostics
{
    modelList (Composition Temperature);

    CompositionCoeffs
    {
        printNumberDensity true;
    }
}

moleculeProperties
{
    e
    {
        mass                            9.109e-31;
        diameter                        5.6358e-15;
        omega                           1;
        charge                          -1.602176e-19;
        solveMovement                   true;
        nEquivalentParticles            1;
    }
    Ar+
    {
        mass                            3.644e-29;
        diameter                        3.67e-10;
        omega                           1;
        charge                          1.602176e-19;
        solveMovement                   true;
        nEquivalentParticles            1;
    }

    SpeciesRelations
    {
        electronTypeId e;
        species1
        {
            neutralTypeId none;
            ionTypeId Ar+;
        }
    }
}


// BoundaryModels
// ~~~~~~~~~~~~~~~
BoundaryModels
{
    WallReflectionModel SpecularReflection;

    PatchEventModels
    {
        modelList ();
    }

    PatchBoundaryModels
    {
        modelList
        (
            source
            {
                type           SimpleInjection;

                SimpleInjectionCoeffs
                {
                    frequencies         (5.3e12 5.3e12);
                    injectionEndTime    1;
                    eV                  (1 1);
                    injectionTypeIds    (e Ar+);
                    velocityModel       maxwellianFlux;

                    interactions
                    {
                        Ar+
                        {
                            type reflection;
                            useInitalVelocity true;
                        }
                        e
                        {
                            type reflection;
                            useInitalVelocity true;
                        }
                    }
                            
                }
            }
            collector
            {
                type           FloatingPotential;
            }
        );

    }
    
}


// MaxwellSolver
// ~~~~~~~~~~~~~~~~~~~~~
MaxwellSolver                  ElectroStatic;

// ParticlePusher
// ~~~~~~~~~~~~~~~~~~~~~
ParticlePusher                 BorisNR;

// CollisionModels
// ~~~~~~~~~~~~~~~~~~~~~
CollisionModels
{
    BackgroundGasModel              none;
    ElectronNeutralCollisionModel   none;
    BinaryCollisionModel            none;
    CoulombCollisionModel           none;
}

// ParticleMerging
// ~~~~~~~~~~~~~~~~~~~~~
ParticleMerging none;


// ************************************************************************* //
