/*--------------------------------*- C++ -*----------------------------------*\
  =========                 |
  \\      /  F ield         | OpenFOAM: The Open Source CFD Toolbox
   \\    /   O peration     | Website:  https://openfoam.org
    \\  /    A nd           | Version:  8
     \\/     M anipulation  |
\*---------------------------------------------------------------------------*/
FoamFile
{
    version     2.0;
    format      ascii;
    class       dictionary;
    object      blockMeshDict;
}
// * * * * * * * * * * * * * * * * * * * * * * * * * * * * * * * * * * * * * //

convertToMeters 0.00001;

vertices
(
    (-20 20 0.5)
    (-20 -20 0.5)
    (-20 -20 -0.5)
    (-20 20 -0.5)
    (20 20 0.5)
    (20 -20 0.5)
    (20 -20 -0.5)
    (20 20 -0.5)
);

blocks
(
    hex (0 1 2 3 4 5 6 7) (40 1 40) simpleGrading (1 1 1)
);

edges
(
);

boundary
(
    leftBoundary
    {
        type patch;
        faces
        (
            (3 0 2 1)
        );
    }
    rightBoundary
    {
        type patch;
        faces
        (
            (4 5 6 7)
        );
    }
    upperBoundary
    {
        type patch;
        faces
        (
            (3 0 4 7)
        );
    }
    lowerBoundary
    {
        type patch;
        faces
        (
            (6 5 1 2)
        );
    }
    emptyBoundary
    {
        type empty;
        faces
        (
            (0 1 5 4)
            (7 6 2 3)
        );
    }
);

mergePatchPairs
(
);

// ************************************************************************* //
