/*--------------------------------*- C++ -*----------------------------------*\
  =========                 |
  \\      /  F ield         | OpenFOAM: The Open Source CFD Toolbox
   \\    /   O peration     | Website:  https://openfoam.org
    \\  /    A nd           | Version:  8
     \\/     M anipulation  |
\*---------------------------------------------------------------------------*/
FoamFile
{
    version     2.0;
    format      ascii;
    class       dictionary;
    location    "system";
    object      picInitialiseDict;
}
// * * * * * * * * * * * * * * * * * * * * * * * * * * * * * * * * * * * * * //

numberDensities
{
    e 0;
};

temperature
{
    e 0;
}

InitializationModel ParticleList;

ParticleListCoeffs
{
    Parcel1
    {
        species e;
        position (0 -1.704508949e-4 0);
        velocity (29979246 0 0);
        temperature 0;
    }
}

solveMaxwellEquations false;
initalizeLeapFrog true;
clearParticles true;
initalizeCollisionModels false;

// ************************************************************************* //
