/*--------------------------------*- C++ -*----------------------------------*\
  =========                 |
  \\      /  F ield         | OpenFOAM: The Open Source CFD Toolbox
   \\    /   O peration     | Website:  https://openfoam.org
    \\  /    A nd           | Version:  7
     \\/     M anipulation  |
\*---------------------------------------------------------------------------*/
FoamFile
{
    version     2.0;
    format      ascii;
    class       volVectorField;
    location    "0";
    object      fD;
}
// * * * * * * * * * * * * * * * * * * * * * * * * * * * * * * * * * * * * * //

dimensions      [1 -1 -2 0 0 0 0];

internalField   uniform (0 0 0);

boundaryField
{
    leftBoundary
    {
        type            calculated;
        value           uniform (0 0 0);
    }
    rightBoundary
    {
        type            calculated;
        value           uniform (0 0 0);
    }
    upperBoundary
    {
        type            calculated;
        value           uniform (0 0 0);
    }
    lowerBoundary
    {
        type            calculated;
        value           uniform (0 0 0);
    }
    emptyBoundary
    {
        type empty;
    }
}


// ************************************************************************* //
