/*--------------------------------*- C++ -*----------------------------------*\
  =========                 |
  \\      /  F ield         | OpenFOAM: The Open Source CFD Toolbox
   \\    /   O peration     | Website:  https://openfoam.org
    \\  /    A nd           | Version:  8
     \\/     M anipulation  |
\*---------------------------------------------------------------------------*/
FoamFile
{
    version     2.0;
    format      ascii;
    class       volVectorField;
    location    "0";
    object      E;
}
// * * * * * * * * * * * * * * * * * * * * * * * * * * * * * * * * * * * * * //

dimensions      [1 1 -3 0 0 -1 0];

internalField   uniform (0 0 0);

boundaryField
{
    leftBoundary
    {
        type            calculated;
        value           uniform (-0 -0 -0);
    }
    rightBoundary
    {
        type            calculated;
        value           uniform (-0 -0 -0);
    }
    emptyBoundary
    {
        type            empty;
    }
}


// ************************************************************************* //
