/*--------------------------------*- C++ -*----------------------------------*\
  =========                 |
  \\      /  F ield         | OpenFOAM: The Open Source CFD Toolbox
   \\    /   O peration     | Website:  https://openfoam.org
    \\  /    A nd           | Version:  8
     \\/     M anipulation  |
\*---------------------------------------------------------------------------*/
FoamFile
{
    version     2.0;
    format      ascii;
    class       dictionary;
    object      changeDictionaryDict;
}
// * * * * * * * * * * * * * * * * * * * * * * * * * * * * * * * * * * * * * //

boundary
{
    leftBoundary
    {
        type            cyclic;
        physicalType    cyclic;
        inGroups        1(cyclic);
        matchTolerance  0.0001;
        transform       unspecified;
        neighbourPatch  rightBoundary;
    }
    rightBoundary
    {
        type            cyclic;
        physicalType    cyclic;
        inGroups        1(cyclic);
        matchTolerance  0.0001;
        transform       unspecified;
        neighbourPatch  leftBoundary;
    }
    lowerBoundary
    {
        type            cyclic;
        physicalType    cyclic;
        inGroups        1(cyclic);
        matchTolerance  0.0001;
        transform       unspecified;
        neighbourPatch  upperBoundary;
    }
    upperBoundary
    {
        type            cyclic;
        physicalType    cyclic;
        inGroups        1(cyclic);
        matchTolerance  0.0001;
        transform       unspecified;
        neighbourPatch  lowerBoundary;
    }
    frontBoundary
    {
        type            cyclic;
        physicalType    cyclic;
        inGroups        1(cyclic);
        matchTolerance  0.0001;
        transform       unspecified;
        neighbourPatch  backBoundary;
    }
    backBoundary
    {
        type            cyclic;
        physicalType    cyclic;
        inGroups        1(cyclic);
        matchTolerance  0.0001;
        transform       unspecified;
        neighbourPatch  frontBoundary;
    }
}

// ************************************************************************* //
