/*--------------------------------*- C++ -*----------------------------------*\
  =========                 |
  \\      /  F ield         | OpenFOAM: The Open Source CFD Toolbox
   \\    /   O peration     | Website:  https://openfoam.org
    \\  /    A nd           | Version:  8
     \\/     M anipulation  |
\*---------------------------------------------------------------------------*/
FoamFile
{
    version     2.0;
    format      ascii;
    class       dictionary;
    location    "constant";
    object      picProperties;
}
// * * * * * * * * * * * * * * * * * * * * * * * * * * * * * * * * * * * * * //

//Note: One can type in an invalid model name to get a list of all defined models at runtime!

SolverSettings
{
    typeIdList                      (e Ar+);//Defined species
    fieldCalculation                ();
    ChargeDistribution              CellAverage;//Model for weighting the charge to the mesh
    FieldWeigthing                  CellAverage;//Model for weighting the electric field to the parcel

    spaceCharge                     0;//[As] space charge to be uniformly distributed

    warnCellTrajectory              0.5;//Warn once every time step if a particle moves further than x of the cell length (there may even be faster particles)
}

Diagnostics
{
    modelList (Temperature);//Select these Diagnostic models
}


moleculeProperties//Properties of all species defined via SolverSettings/typeIdList
{
    e
    {
        mass                            9.109e-31;
        diameter                        5.6358e-15;
        omega                           1;//viscosity index (used only by the VariableHardSphere model)
        charge                          -1.602176e-19;
        solveMovement                   true;//Whether the parcel should move or stay stationary
        nEquivalentParticles            400;//Number of real particles included in the parcel
    }
    Ar+
    {
        mass                            9.109e-30;
        diameter                        3.67e-10;
        omega                           1;
        charge                          1.602176e-19;
        solveMovement                   true;
        nEquivalentParticles            400;
    }

    SpeciesRelations//Relations between species. Required for the collision algorithms among others
    {
        electronTypeId e;
        species1
        {
            neutralTypeId none;
            ionTypeId Ar+;
        }
    }
}


// BoundaryModels
// ~~~~~~~~~~~~~~~
BoundaryModels
{
    //Reflection model for boundaries of type wall (see: constant/polyMesh/boundary)
    WallReflectionModel SpecularReflection;

    //List of PatchEvent models
    PatchEventModels
    {
        modelList ();
    }

    //Boundary models have to be defined for patches
    PatchBoundaryModels
    {
        modelList ();

    }
    
}


// MaxwellSolver
// ~~~~~~~~~~~~~~~~~~~~~
MaxwellSolver                  none;

// ParticlePusher
// ~~~~~~~~~~~~~~~~~~~~~
ParticlePusher                 Boris;

// CollisionModels
// ~~~~~~~~~~~~~~~~~~~~~
CollisionModels
{
    BackgroundGasModel              none;
    ElectronNeutralCollisionModel   none;
    BinaryCollisionModel            none;
    IonNeutralCollisionModel        none;

    CoulombCollisionModel           Perez;
    CoulombCollisionCoeffs
    {
        pairingAlgorithm            NanbuYonemura;
        WeightCorrection            none;

        allowIntraCollision true;
        Collisions//Define the coulombLog for each collision (optional)
        {
            pair1
            {
                collisionPartner (e e);
                coulombLog 15;
            }
            pair2
            {
                collisionPartner (Ar+ Ar+);
                coulombLog 15;
            }
            pair3
            {
                collisionPartner (Ar+ e);
                coulombLog 15;
            }
        };

        //Ionization model used in coulomb collisions (here as an example)
        IonizationModel             none;//Perez
        PerezIonizationCoeffs
        {
            Ar_Coeffs
            {
                ionSpecies Ar+;
                ionizationLimit 5;//optional
                atomicNumber    18;
                bindingEnergy                   (3206.2 3206.2 //1s
                                                 324.2 324.2 //2s
                                                 247.74 247.74 247.74 247.74 247.74 247.74 //2p
                                                 29.24 29.24 //3s
                                                 15.76 15.76 15.76 15.76 15.76 15.76);//3p

                ionizationEnergy                 (15.7596117 27.62967 40.735 59.58 74.84 91.29 124.41 143.4567 
                                                        422.6 479.76 540.4 619.0 685.5 755.13 855.5 918.375 4120.6656 4426.2228);
            }
        }
    }
}

// ParticleMerging
// ~~~~~~~~~~~~~~~~~~~~~
ParticleMerging             none;

// ************************************************************************* //
